data_global
_cell_length_a 9.00
_cell_length_b 9.00
_cell_length_c 15.00
_cell_angle_alpha 90
_cell_angle_beta 90
_cell_angle_gamma 90
_symmetry_space_group_name_H-M 'P42/mmc'
_symmetry_Int_Tables_number 131
loop_
_symmetry_equiv_pos_as_xyz
y,x,z+1/2
-y,-x,z+1/2
-x,y,z
x,-y,z
-y,x,-z+1/2
y,-x,-z+1/2
x,y,-z
-x,-y,-z
-y,-x,-z+1/2
y,x,-z+1/2
x,-y,-z
-x,y,-z
y,-x,z+1/2
-y,x,z+1/2
-x,-y,z
x,y,z
loop_
_atom_site_label
_atom_site_type_symbol
_atom_site_fract_x
_atom_site_fract_y
_atom_site_fract_z
C1 C 0.4108 0.4118 0.0000
C2 C 0.5000 0.0758 0.2270
C3 C 0.0861 0.0000 0.0525
C4 C 0.5000 0.4170 0.0530
C5 C 0.4250 0.0000 0.2260
C6 C 0.0900 0.0900 0.0000
C7 C 0.1657 0.1320 0.0939
C8 C 0.2171 0.2535 0.0485
C9 C 0.3440 0.3325 0.0795
C10 C 0.4186 0.2827 0.1526
C11 C 0.3683 0.1545 0.1981
C12 C 0.2439 0.0806 0.1679