data_global
_cell_length_a 9.4272
_cell_length_b 7.0774
_cell_length_c 18.2519
_cell_angle_alpha 90
_cell_angle_beta 90
_cell_angle_gamma 90
_symmetry_space_group_name_H-M 'Pca21'
loop_
_symmetry_equiv_pos_as_xyz
x,y,z
-x+1/2,y,z+1/2
x+1/2,-y,z
-x,-y,z+1/2
loop_
_atom_site_type_symbol
_atom_site_label
_atom_site_fract_x
_atom_site_fract_y
_atom_site_fract_z
C C1 0.46884 -0.0934 0.56988
C C2 0.52169 0.0843 0.58072
C C3 0.49604 0.1650 0.64918
C C4 0.42239 0.07054 0.70375
C C5 0.37103 -0.1112 0.69111
C C6 0.39546 -0.1878 0.62345
C C7 0.4116 -0.3789 0.5264
C C8 0.39360 0.1602 0.77726
C C9 0.23673 0.21343 0.78510
C C10 0.1900 0.3672 0.73245
C C11 0.2240 0.1351 0.91961
O O1 0.4718 -0.1993 0.5059
O O2 0.3447 -0.3585 0.5969
N N1 0.20781 0.27940 0.86126
Cl Cl1 0.38749 0.64748 0.88572
H H21 0.5767 0.1520 0.5449
H H31 0.5333 0.2873 0.6590
H H51 0.3254 -0.1811 0.7283
H H701 0.4857 -0.4783 0.5287
H H702 0.3346 -0.4154 0.4926
H H81 0.4135 0.0684 0.8133
H H82 0.4539 0.2703 0.7869
H H91 0.1795 0.0991 0.7794
H H103 0.0910 0.3990 0.7394
H H102 0.2476 0.4801 0.7444
H H101 0.2068 0.3338 0.6816
H H111 0.1849 0.1767 0.9645
H H112 0.3205 0.1016 0.9236
H H113 0.1732 0.0301 0.9016
H H11 0.2646 0.381 0.8711
H H12 0.1157 0.316 0.8628